
ideal_gas(name='test_set', elements='O H', species='A B C D E N', reactions='all')

species(name='A', atoms='H:2',      thermo=(NASA(Trange=(300., 1000.), coeffs=[1.e0, 1.e-2, 1.e-4, 1.e-6, 1.e-8, 1.e-10, 1.e-12]), NASA(Trange=(1000., 3000.), coeffs=[1.e0, 1.e-2, 1.e-4, 1.e-6, 1.e-8, 1.e-10, 1.e-12])))
species(name='B', atoms='H:1',      thermo=(NASA(Trange=(300., 1000.), coeffs=[1.e0, 1.e-2, 1.e-4, 1.e-6, 1.e-8, 1.e-10, 1.e-12]), NASA(Trange=(1000., 3000.), coeffs=[1.e0, 1.e-2, 1.e-4, 1.e-6, 1.e-8, 1.e-10, 1.e-12])))
species(name='C', atoms='O:1',      thermo=(NASA(Trange=(300., 1000.), coeffs=[1.e0, 1.e-2, 1.e-4, 1.e-6, 1.e-8, 1.e-10, 1.e-12]), NASA(Trange=(1000., 3000.), coeffs=[1.e0, 1.e-2, 1.e-4, 1.e-6, 1.e-8, 1.e-10, 1.e-12])))
species(name='D', atoms='O:2',      thermo=(NASA(Trange=(300., 1000.), coeffs=[1.e0, 1.e-2, 1.e-4, 1.e-6, 1.e-8, 1.e-10, 1.e-12]), NASA(Trange=(1000., 3000.), coeffs=[1.e0, 1.e-2, 1.e-4, 1.e-6, 1.e-8, 1.e-10, 1.e-12])))
species(name='E', atoms='H:1, O:2', thermo=(NASA(Trange=(300., 1000.), coeffs=[1.e0, 1.e-2, 1.e-4, 1.e-6, 1.e-8, 1.e-10, 1.e-12]), NASA(Trange=(1000., 3000.), coeffs=[1.e0, 1.e-2, 1.e-4, 1.e-6, 1.e-8, 1.e-10, 1.e-12])))
species(name='N', atoms='H:1, O:1', thermo=(NASA(Trange=(300., 1000.), coeffs=[1.e0, 1.e-2, 1.e-4, 1.e-6, 1.e-8, 1.e-10, 1.e-12]), NASA(Trange=(1000., 3000.), coeffs=[1.e0, 1.e-2, 1.e-4, 1.e-6, 1.e-8, 1.e-10, 1.e-12])))

reaction('A + D => B + E', [1e7, 0, 0])
reaction('A + D => B + E', [1e7, 0, 0], order='A:0.5 D:0.5')
reaction('A + D => B + E', [1e7, 0, 0], order='A:0.5 D:1.5')
reaction('A + D => B + E', [1e7, 0, 0], order='A:1.5 D:1.5')
reaction('A + D => B + E', [1e7, 1, 0])
reaction('A + D => B + E', [1e7, 2, 0])
reaction('A + D => B + E', [1e7, -1, 0])
reaction('A + D => B + E', [1e7, 1, (10, 'kcal/mol')])
reaction('A + D <=> B + E', [1e7, 0, 0])
reaction('A + D <=> B + E', [1e7, 1, 0])
reaction('A + D <=> B + E', [1e7, 2, 0])
reaction('A + D <=> B + E', [1e7, -1, 0])
reaction('A + D <=> B + E', [1e7, 1, (10, 'kcal/mol')])
three_body_reaction('A + D + M <=> B + E + M', [1e7, 1, (10, 'kcal/mol')], efficiencies = 'C:2')
falloff_reaction('A + D (+ M) <=> B + E (+ M)', kf=[1e7, 1, (10, 'kcal/mol')], kf0=[0.1, 1, (1, 'kcal/mol')], efficiencies = 'C:2')
falloff_reaction('A + D (+ M) <=> B + E (+ M)', kf=[1e7, 1, (10, 'kcal/mol')], kf0=[0.1e3, 1, (1, 'kcal/mol')], efficiencies = 'C:2', falloff=Troe(A=1, T3=1e2, T1=1e3, T2=2e3))
