
ideal_gas(name='one_step_hydrogen', elements='O H N', species='H2 O2 H2O N2', reactions='all')

species(name='H2',  atoms='H:2',      thermo=(
        NASA(Trange=(300., 1000.),  coeffs=[3.298124000E+00, 8.249442000E-04, -8.143015000E-07, -9.475434000E-11, 4.134872000E-13, -1.012521000E+03, -3.294094000E+00]), 
        NASA(Trange=(1000., 5000.), coeffs=[2.991423000E+00, 7.000644000E-04, -5.633829000E-08, -9.231578000E-12, 1.582752000E-15, -8.350340000E+02, -1.355110000E+00])))
species(name='H2O', atoms='H:2, O:1', thermo=(
        NASA(Trange=(300., 1000.),  coeffs=[3.386842000E+00, 3.474982000E-03, -6.354696000E-06, 6.968581000E-09, -2.506588000E-12, -3.020811000E+04, 2.590233000E+00]), 
        NASA(Trange=(1000., 5000.), coeffs=[2.672146000E+00, 3.056293000E-03, -8.730260000E-07, 1.200996000E-10, -6.391618000E-15, -2.989921000E+04, 6.862817000E+00])))
species(name='O2',  atoms='O:2',      thermo=(
        NASA(Trange=(300., 1000.),  coeffs=[3.212936000E+00, 1.127486000E-03, -5.756150000E-07, 1.313877000E-09, -8.768554000E-13, -1.005249000E+03, 6.034738000E+00]), 
        NASA(Trange=(1000., 5000.), coeffs=[3.697578000E+00, 6.135197000E-04, -1.258842000E-07, 1.775281000E-11, -1.136435000E-15, -1.233930000E+03, 3.189166000E+00])))
species(name='N2',  atoms='N:2',      thermo=(
        NASA(Trange=(300., 1000.),  coeffs=[3.298677000E+00, 1.408240000E-03, -3.963222000E-06, 5.641515000E-09, -2.444855000E-12, -1.020900000E+03, 3.950372000E+00]), 
        NASA(Trange=(1000., 5000.), coeffs=[2.926640000E+00, 1.487977000E-03, -5.684761000E-07, 1.009704000E-10, -6.753351000E-15, -9.227977000E+02, 5.980528000E+00])))

reaction('2 H2 + O2 => 2 H2O', [2e7, 0, (30, 'kcal/mol')])
